@<TRIPOS>MOLECULE
MOL
   60    64     1     0     0
SMALL
No Charge or Current Charge


@<TRIPOS>ATOM
      1 C1          -7.7880    -0.2470     0.0000 ca         1 MOL       0.051101
      2 C2          -6.7960    -1.2620     0.0000 cp         1 MOL       0.063225
      3 C3          -9.1540    -0.5540     0.0000 ca         1 MOL      -0.191187
      4 C4          -7.2070    -2.6080     0.0000 ca         1 MOL      -0.180031
      5 C5          -9.5330    -1.8980     0.0000 ca         1 MOL      -0.175405
      6 C6          -8.5650    -2.9190     0.0000 ca         1 MOL      -0.103866
      7 S1          -7.0920     1.3760    -0.0000 ss         1 MOL      -0.075541
      8 C7          -5.4540     0.7120    -0.0000 ca         1 MOL       0.020585
      9 C8          -5.4510    -0.7140    -0.0000 cp         1 MOL       0.007479
     10 C9          -4.2770     1.4580    -0.0000 ca         1 MOL      -0.210233
     11 C10         -3.0510     0.7740    -0.0000 cp         1 MOL       0.030598
     12 C11         -4.2250    -1.3980    -0.0000 ca         1 MOL      -0.224277
     13 C12         -3.0480    -0.6520    -0.0000 ca         1 MOL       0.024760
     14 C13         -1.7060     1.3220    -0.0000 cp         1 MOL       0.022492
     15 C14         -0.7140     0.3070    -0.0000 ca         1 MOL       0.016837
     16 S2          -1.4100    -1.3160    -0.0000 ss         1 MOL      -0.063539
     17 C15         -1.2950     2.6680    -0.0000 ca         1 MOL      -0.157522
     18 C16          0.0630     2.9790    -0.0000 ca         1 MOL      -0.246615
     19 C17          0.6520     0.6140    -0.0000 ca         1 MOL      -0.243023
     20 C18          1.0310     1.9580    -0.0000 ca         1 MOL       0.191078
     21 H1           0.3800     4.0240    -0.0000 ha         1 MOL       0.152370
     22 H2           1.4030    -0.1770    -0.0000 ha         1 MOL       0.173222
     23 H3          -4.3030     2.5500    -0.0000 ha         1 MOL       0.193462
     24 H4          -4.1990    -2.4900    -0.0000 ha         1 MOL       0.200563
     25 H5          -2.0410     3.4670    -0.0000 ha         1 MOL       0.136945
     26 H6          -9.9050     0.2370     0.0000 ha         1 MOL       0.186739
     27 H7         -10.5940    -2.1550     0.0000 ha         1 MOL       0.143072
     28 H8          -8.8820    -3.9640     0.0000 ha         1 MOL       0.128984
     29 H9          -6.4610    -3.4060     0.0000 ha         1 MOL       0.130756
     30 C19          2.5220     2.3200     0.0000 c3         1 MOL      -0.273894
     31 C20          3.4500     1.1010     0.0000 c3         1 MOL       0.197097
     32 C21          4.9390     1.4630     0.0000 c3         1 MOL      -0.108392
     33 C22          5.8670     0.2450     0.0000 c3         1 MOL      -0.101887
     34 C23         13.1070    -2.3320     0.0000 c3         1 MOL      -0.305583
     35 C24         12.1890    -1.1070    -0.0000 c3         1 MOL       0.161527
     36 C25         10.7000    -1.4680    -0.0000 c3         1 MOL       0.025442
     37 C26          9.7720    -0.2490    -0.0000 c3         1 MOL      -0.106251
     38 C27          8.2830    -0.6120    -0.0000 c3         1 MOL       0.006829
     39 C28          7.3550     0.6070     0.0000 c3         1 MOL       0.136021
     40 H10          2.7440     2.9480    -0.8820 hc         1 MOL       0.079961
     41 H11          2.7440     2.9480     0.8830 hc         1 MOL       0.079985
     42 H12          3.2280     0.4730     0.8830 hc         1 MOL      -0.016122
     43 H13          3.2280     0.4730    -0.8820 hc         1 MOL      -0.016135
     44 H14          5.1610     2.0920    -0.8820 hc         1 MOL       0.029734
     45 H15          5.1610     2.0910     0.8830 hc         1 MOL       0.029743
     46 H16          5.6440    -0.3840     0.8820 hc         1 MOL       0.016659
     47 H17          5.6440    -0.3830    -0.8830 hc         1 MOL       0.016677
     48 H18         14.1700    -2.0450     0.0000 hc         1 MOL       0.074743
     49 H19         12.9300    -2.9600     0.8890 hc         1 MOL       0.067096
     50 H20         12.9300    -2.9610    -0.8880 hc         1 MOL       0.067084
     51 H21         12.4090    -0.4790    -0.8820 hc         1 MOL      -0.023809
     52 H22         12.4090    -0.4780     0.8820 hc         1 MOL      -0.023827
     53 H23         10.4780    -2.0970     0.8820 hc         1 MOL      -0.000594
     54 H24         10.4780    -2.0970    -0.8830 hc         1 MOL      -0.000605
     55 H25          9.9950     0.3790    -0.8830 hc         1 MOL       0.016923
     56 H26          9.9940     0.3790     0.8830 hc         1 MOL       0.016936
     57 H27          8.0610    -1.2400     0.8820 hc         1 MOL      -0.000901
     58 H28          8.0610    -1.2400    -0.8830 hc         1 MOL      -0.000883
     59 H29          7.5780     1.2350    -0.8820 hc         1 MOL      -0.023309
     60 H30          7.5780     1.2350     0.8830 hc         1 MOL      -0.023296
@<TRIPOS>BOND
     1     1     2 ar  
     2     1     3 ar  
     3     1     7 1   
     4     2     4 ar  
     5     2     9 1   
     6     3     5 ar  
     7     3    26 1   
     8     4     6 ar  
     9     4    29 1   
    10     5     6 ar  
    11     5    27 1   
    12     6    28 1   
    13     7     8 1   
    14     8     9 ar  
    15     8    10 ar  
    16     9    12 ar  
    17    10    11 ar  
    18    10    23 1   
    19    11    13 ar  
    20    11    14 1   
    21    12    13 ar  
    22    12    24 1   
    23    13    16 1   
    24    14    15 ar  
    25    14    17 ar  
    26    15    16 1   
    27    15    19 ar  
    28    17    18 ar  
    29    17    25 1   
    30    18    20 ar  
    31    18    21 1   
    32    19    20 ar  
    33    19    22 1   
    34    20    30 1   
    35    30    31 1   
    36    30    40 1   
    37    30    41 1   
    38    31    32 1   
    39    31    42 1   
    40    31    43 1   
    41    32    33 1   
    42    32    44 1   
    43    32    45 1   
    44    33    39 1   
    45    33    46 1   
    46    33    47 1   
    47    34    35 1   
    48    34    48 1   
    49    34    49 1   
    50    34    50 1   
    51    35    36 1   
    52    35    51 1   
    53    35    52 1   
    54    36    37 1   
    55    36    53 1   
    56    36    54 1   
    57    37    38 1   
    58    37    55 1   
    59    37    56 1   
    60    38    39 1   
    61    38    57 1   
    62    38    58 1   
    63    39    59 1   
    64    39    60 1   
@<TRIPOS>SUBSTRUCTURE
     1 MOL         1 TEMP              0 ****  ****    0 ROOT
