@<TRIPOS>MOLECULE
MOL
   30    34     1     0     0
SMALL
resp


@<TRIPOS>ATOM
      1 C1          -1.0920     3.3750     0.0000 ca         1 MOL       0.063202
      2 C2           0.2250     2.8450     0.0000 cp         1 MOL       0.040667
      3 C3          -1.3280     4.7550     0.0000 ca         1 MOL      -0.158718
      4 C4           1.3120     3.7380     0.0000 ca         1 MOL      -0.164673
      5 C5          -0.2310     5.6180     0.0000 ca         1 MOL      -0.173735
      6 C6           1.0820     5.1130     0.0000 ca         1 MOL      -0.110371
      7 S1          -2.3270     2.1140     0.0000 ss         1 MOL      -0.076290
      8 C7          -1.0890     0.8520     0.0000 ca         1 MOL       0.011446
      9 C8           0.2310     1.3930     0.0000 cp         1 MOL       0.012805
     10 C9          -1.3300    -0.5200     0.0000 ca         1 MOL      -0.173125
     11 C10         -0.2310    -1.3930     0.0000 cp         1 MOL       0.012805
     12 C11          1.3300     0.5200     0.0000 ca         1 MOL      -0.173125
     13 C12          1.0890    -0.8520     0.0000 ca         1 MOL       0.011446
     14 C13         -0.2250    -2.8450     0.0000 cp         1 MOL       0.040667
     15 C14          1.0920    -3.3750     0.0000 ca         1 MOL       0.063202
     16 S2           2.3270    -2.1140     0.0000 ss         1 MOL      -0.076290
     17 C15         -1.3120    -3.7380     0.0000 ca         1 MOL      -0.164673
     18 C16         -1.0820    -5.1130     0.0000 ca         1 MOL      -0.110371
     19 C17          1.3280    -4.7550     0.0000 ca         1 MOL      -0.158718
     20 C18          0.2310    -5.6180     0.0000 ca         1 MOL      -0.173735
     21 H1          -1.9280    -5.8040     0.0000 ha         1 MOL       0.127624
     22 H2           0.3970    -6.6980     0.0000 ha         1 MOL       0.139437
     23 H3           2.3470    -5.1490     0.0000 ha         1 MOL       0.162544
     24 H4          -2.3490    -0.9120     0.0000 ha         1 MOL       0.176238
     25 H5           2.3490     0.9120     0.0000 ha         1 MOL       0.176238
     26 H6          -2.3350    -3.3530     0.0000 ha         1 MOL       0.122948
     27 H7          -2.3470     5.1490     0.0000 ha         1 MOL       0.162544
     28 H8          -0.3970     6.6980     0.0000 ha         1 MOL       0.139437
     29 H9           1.9280     5.8040     0.0000 ha         1 MOL       0.127624
     30 H10          2.3350     3.3530     0.0000 ha         1 MOL       0.122948
@<TRIPOS>BOND
     1     1     2 ar  
     2     1     3 ar  
     3     1     7 1   
     4     2     4 ar  
     5     2     9 1   
     6     3     5 ar  
     7     3    27 1   
     8     4     6 ar  
     9     4    30 1   
    10     5     6 ar  
    11     5    28 1   
    12     6    29 1   
    13     7     8 1   
    14     8     9 ar  
    15     8    10 ar  
    16     9    12 ar  
    17    10    11 ar  
    18    10    24 1   
    19    11    13 ar  
    20    11    14 1   
    21    12    13 ar  
    22    12    25 1   
    23    13    16 1   
    24    14    15 ar  
    25    14    17 ar  
    26    15    16 1   
    27    15    19 ar  
    28    17    18 ar  
    29    17    26 1   
    30    18    20 ar  
    31    18    21 1   
    32    19    20 ar  
    33    19    23 1   
    34    20    22 1   
@<TRIPOS>SUBSTRUCTURE
     1 MOL         1 TEMP              0 ****  ****    0 ROOT
