@<TRIPOS>MOLECULE
MOL
   40    45     1     0     0
SMALL
No Charge or Current Charge


@<TRIPOS>ATOM
      1 C1          -4.8220     2.2850     0.0000 ca         1 MOL       0.083073
      2 C2          -3.5840     2.9790     0.0000 cp         1 MOL      -0.018891
      3 C3          -6.0460     2.9640     0.0000 ca         1 MOL      -0.186381
      4 C4          -3.5990     4.3860     0.0000 ca         1 MOL      -0.157318
      5 C5          -6.0310     4.3600     0.0000 ca         1 MOL      -0.169090
      6 C6          -4.8150     5.0680     0.0000 ca         1 MOL      -0.101315
      7 S1          -4.6120     0.5310     0.0000 ss         1 MOL      -0.088876
      8 C7          -2.8530     0.7070     0.0000 ca         1 MOL       0.049162
      9 C8          -2.4480     2.0740     0.0000 cp         1 MOL       0.037151
     10 C9          -1.9330    -0.3410     0.0000 ca         1 MOL      -0.245863
     11 C10         -0.5640    -0.0300     0.0000 cp         1 MOL       0.049768
     12 C11         -1.0790     2.3850     0.0000 ca         1 MOL      -0.231315
     13 C12         -0.1600     1.3380     0.0000 ca         1 MOL       0.065710
     14 C13          0.5710    -0.9340     0.0000 cp         1 MOL      -0.047006
     15 C14          1.8090    -0.2400     0.0000 ca         1 MOL       0.078340
     16 S2           1.5990     1.5130     0.0000 ss         1 MOL      -0.097509
     17 C15          0.5870    -2.3420     0.0000 ca         1 MOL      -0.103286
     18 C16          1.8030    -3.0230     0.0000 ca         1 MOL      -0.193407
     19 C17          3.0330    -0.9190     0.0000 ca         1 MOL      -0.282610
     20 C18          3.0190    -2.3150     0.0000 cp         1 MOL       0.073334
     21 H1           1.8120    -4.1150     0.0000 ha         1 MOL       0.144419
     22 H2           3.9780    -0.3720     0.0000 ha         1 MOL       0.239984
     23 H3          -2.2660    -1.3810     0.0000 ha         1 MOL       0.210638
     24 H4          -0.7470     3.4260     0.0000 ha         1 MOL       0.205605
     25 H5          -0.3540    -2.8980     0.0000 ha         1 MOL       0.117379
     26 H6          -6.9900     2.4160     0.0000 ha         1 MOL       0.181149
     27 H7          -6.9770     4.9060     0.0000 ha         1 MOL       0.142120
     28 H8          -4.8250     6.1590     0.0000 ha         1 MOL       0.127330
     29 H9          -2.6590     4.9420     0.0000 ha         1 MOL       0.125837
     30 C19          4.3480    -3.0830     0.0000 cp         1 MOL       0.060836
     31 C20          6.7620    -4.4770     0.0000 ca         1 MOL      -0.160878
     32 C21          6.7620    -3.0830     0.0000 ca         1 MOL      -0.107911
     33 C22          5.5550    -5.1740     0.0000 ca         1 MOL      -0.118705
     34 C23          5.5550    -2.3860     0.0000 ca         1 MOL      -0.151622
     35 C24          4.3480    -4.4770     0.0000 ca         1 MOL      -0.151856
     36 H10          7.7010    -5.0190     0.0000 ha         1 MOL       0.136201
     37 H11          7.7010    -2.5400     0.0000 ha         1 MOL       0.130493
     38 H12          5.5550    -1.3010     0.0000 ha         1 MOL       0.098573
     39 H13          3.4080    -5.0190     0.0000 ha         1 MOL       0.127369
     40 H14          5.5550    -6.2580     0.0000 ha         1 MOL       0.129367
@<TRIPOS>BOND
     1     1     2 ar  
     2     1     3 ar  
     3     1     7 1   
     4     2     4 ar  
     5     2     9 1   
     6     3     5 ar  
     7     3    26 1   
     8     4     6 ar  
     9     4    29 1   
    10     5     6 ar  
    11     5    27 1   
    12     6    28 1   
    13     7     8 1   
    14     8     9 ar  
    15     8    10 ar  
    16     9    12 ar  
    17    10    11 ar  
    18    10    23 1   
    19    11    13 ar  
    20    11    14 1   
    21    12    13 ar  
    22    12    24 1   
    23    13    16 1   
    24    14    15 ar  
    25    14    17 ar  
    26    15    16 1   
    27    15    19 ar  
    28    17    18 ar  
    29    17    25 1   
    30    18    20 ar  
    31    18    21 1   
    32    19    20 ar  
    33    19    22 1   
    34    20    30 1   
    35    30    34 ar  
    36    30    35 ar  
    37    31    32 ar  
    38    31    33 ar  
    39    31    36 1   
    40    32    34 ar  
    41    32    37 1   
    42    33    35 ar  
    43    33    40 1   
    44    34    38 1   
    45    35    39 1   
@<TRIPOS>SUBSTRUCTURE
     1 MOL         1 TEMP              0 ****  ****    0 ROOT
