@<TRIPOS>MOLECULE
MOL
   12    12     1     0     0
SMALL
resp


@<TRIPOS>ATOM
      1 H1           2.1470     1.2390     0.0000 ha         1 MOL       0.124991
      2 C1           1.2070     0.6970     0.0000 ca         1 MOL      -0.124991
      3 C2          -1.2070    -0.6970     0.0000 ca         1 MOL      -0.124991
      4 C3          -1.2070     0.6970     0.0000 ca         1 MOL      -0.124991
      5 C4           0.0000    -1.3940     0.0000 ca         1 MOL      -0.124991
      6 C5           0.0000     1.3940     0.0000 ca         1 MOL      -0.124991
      7 C6           1.2070    -0.6970     0.0000 ca         1 MOL      -0.124991
      8 H2          -2.1470    -1.2390     0.0000 ha         1 MOL       0.124991
      9 H3          -2.1470     1.2390     0.0000 ha         1 MOL       0.124991
     10 H4          -0.0000     2.4790     0.0000 ha         1 MOL       0.124991
     11 H5           2.1470    -1.2390     0.0000 ha         1 MOL       0.124991
     12 H6          -0.0000    -2.4790     0.0000 ha         1 MOL       0.124991
@<TRIPOS>BOND
     1     1     2 1   
     2     2     6 ar  
     3     2     7 ar  
     4     3     4 ar  
     5     3     5 ar  
     6     3     8 1   
     7     4     6 ar  
     8     4     9 1   
     9     5     7 ar  
    10     5    12 1   
    11     6    10 1   
    12     7    11 1   
@<TRIPOS>SUBSTRUCTURE
     1 MOL         1 TEMP              0 ****  ****    0 ROOT
